50

B	  -8.6602        0        0
N	  -7.2169        0        0
B	  -6.4952  -1.2500        0
N	  -5.0518  -1.2500        0
B	  -4.3301  -2.5000        0
N	  -2.8867  -2.5000        0
B	  -2.1651  -3.7500        0
N	  -0.7217  -3.7500        0
B	        0  -5.0000        0
N	   1.4434  -5.0000        0
B	  -6.4952   1.2500        0
N	  -5.0518   1.2500        0
B	  -4.3301        0        0
N	  -2.8867        0        0
B	  -2.1651  -1.2500        0
N	  -0.7217  -1.2500        0
B	        0  -2.5000        0
N	   1.4434  -2.5000        0
B	   2.1651  -3.7500        0
N	   3.6084  -3.7500        0
B	  -4.3301   2.5000        0
N	  -2.8867   2.5000        0
B	  -2.1651   1.2500        0
N	  -0.7217   1.2500        0
B	        0        0        0
N	   1.4434        0        0
B	   2.1651  -1.2500        0
N	   3.6084  -1.2500        0
B	   4.3301  -2.5000        0
N	   5.7735  -2.5000        0
B	  -2.1651   3.7500        0
N	  -0.7217   3.7500        0
B	        0   2.5000        0
N	   1.4434   2.5000        0
B	   2.1651   1.2500        0
N	   3.6084   1.2500        0
B	   4.3301        0        0
N	   5.7735        0        0
B	   6.4952  -1.2500        0
N	   7.9386  -1.2500        0
B	        0   5.0000        0
N	   1.4434   5.0000        0
B	   2.1651   3.7500        0
N	   3.6084   3.7500        0
B	   4.3301   2.5000        0
N	   5.7735   2.5000        0
B	   6.4952   1.2500        0
N	   7.9386   1.2500        0
B	   8.6602        0        0
N	   10.1036         0         0
